Midwest-240-Node.glm
module tape;

clock {
	starttime '2017-01-01 00:00:00';
	stoptime '2017-12-31 23:59:00';
};

#set suppress_repeat_messages=0;
#set minimum_timestep=60;

module powerflow {
	solver_method NR;
	NR_iteration_limit 100;
	line_capacitance TRUE;
};

class player {	//this only needs to be done once
	complex value;	//at the beginning of the glm file
}

object player {
	name TphaseLOAD_1;
	file year_min_l/load_profile_PQ_1.csv;
	loop 1;
};

object voltdump {
	filename vdump29.csv;
	mode POLAR;
};

object currdump {
	filename cdump29.csv;
	mode POLAR;
};

object node {
	name nbus1001;
	phases ABCN;
	nominal_voltage 7967.433714816836;
};

object node {
	name nbus1002;
	phases ABCN;
	nominal_voltage 7967.433714816836;
};

object node {
	name nbus1003;
	phases ABCN;
	nominal_voltage 7967.433714816836;
};

object node {
	name nbus1004;
	phases ABCN;
	nominal_voltage 7967.433714816836;
};

object node {
	name nbus1005;
	phases ABCN;
	nominal_voltage 7967.433714816836;
};

object node {
	name nbus1006;
	phases ABCN;
	nominal_voltage 7967.433714816836;
};

object node {
	name nbus1007;
	phases ABN;
	nominal_voltage 7967.433714816836;
};

object node {
	name nbus1008;
	phases ABCN;
	nominal_voltage 7967.433714816836;
};

object node {
	name nbus1009;
	phases ABCN;
	nominal_voltage 7967.433714816836;
};

object node {
	name nbus1010;
	phases ABCN;
	nominal_voltage 7967.433714816836;
};

object node {
	name nbus1011;
	phases ABCN;
	nominal_voltage 7967.433714816836;
};

object node {
	name nbus1012;
	phases ABCN;
	nominal_voltage 7967.433714816836;
};

object node {
	name nbus1013;
	phases ABCN;
	nominal_voltage 7967.433714816836;
};

object node {
	name nbus1014;
	phases BN;
	nominal_voltage 7967.433714816836;
};

object node {
	name nbus1015;
	phases BN;
	nominal_voltage 7967.433714816836;
};

object node {
	name nbus1016;
	phases CN;
	nominal_voltage 7967.433714816836;
};

object node {
	name nbus1017;
	phases CN;
	nominal_voltage 7967.433714816836;
};

object node {
	name nbus2001;
	phases ABCN;
	nominal_voltage 7967.433714816836;
};

object node {
	name nbus2002;
	phases ABCN;
	nominal_voltage 7967.433714816836;
};

object node {
	name nbus2003;
	phases ABCN;
	nominal_voltage 7967.433714816836;
};

object node {
	name nbus2004;
	phases ABCN;
	nominal_voltage 7967.433714816836;
};

object node {
	name nbus2005;
	phases ABCN;
	nominal_voltage 7967.433714816836;
};

object node {
	name nbus2006;
	phases ABCN;
	nominal_voltage 7967.433714816836;
};

object node {
	name nbus2007;
	phases AN;
	nominal_voltage 7967.433714816836;
};

object node {
	name nbus2008;
	phases AN;
	nominal_voltage 7967.433714816836;
};

object node {
	name nbus2009;
	phases AN;
	nominal_voltage 7967.433714816836;
};

object node {
	name nbus2010;
	phases ABCN;
	nominal_voltage 7967.433714816836;
};

object node {
	name nbus2011;
	phases ABCN;
	nominal_voltage 7967.433714816836;
};

object node {
	name nbus2012;
	phases ABCN;
	nominal_voltage 7967.433714816836;
};

object node {
	name nbus2013;
	phases ABCN;
	nominal_voltage 7967.433714816836;
};

object node {
	name nbus2014;
	phases ABCN;
	nominal_voltage 7967.433714816836;
};

object node {
	name nbus2015;
	phases BN;
	nominal_voltage 7967.433714816836;
};

object node {
	name nbus2016;
	phases ABCN;
	nominal_voltage 7967.433714816836;
};

object node {
	name nbus2017;
	phases ABCN;
	nominal_voltage 7967.433714816836;
};

object node {
	name nbus2018;
	phases ABCN;
	nominal_voltage 7967.433714816836;
};

object node {
	name nbus2019;
	phases ABCN;
	nominal_voltage 7967.433714816836;
};

object node {
	name nbus2020;
	phases BN;
	nominal_voltage 7967.433714816836;
};

object node {
	name nbus2021;
	phases ABCN;
	nominal_voltage 7967.433714816836;
};

object node {
	name nbus2022;
	phases CN;
	nominal_voltage 7967.433714816836;
};

object node {
	name nbus2023;
	phases CN;
	nominal_voltage 7967.433714816836;
};

object node {
	name nbus2024;
	phases CN;
	nominal_voltage 7967.433714816836;
};

object node {
	name nbus2025;
	phases CN;
	nominal_voltage 7967.433714816836;
};

object node {
	name nbus2026;
	phases ABCN;
	nominal_voltage 7967.433714816836;
};

object node {
	name nbus2027;
	phases ABCN;
	nominal_voltage 7967.433714816836;
};

object node {
	name nbus2028;
	phases ABCN;
	nominal_voltage 7967.433714816836;
};

object node {
	name nbus2029;
	phases ABCN;
	nominal_voltage 7967.433714816836;
};

object node {
	name nbus2030;
	phases ABCN;
	nominal_voltage 7967.433714816836;
};

object node {
	name nbus2031;
	phases ABCN;
	nominal_voltage 7967.433714816836;
};

object node {
	name nbus2032;
	phases ABCN;
	nominal_voltage 7967.433714816836;
};

object node {
	name nbus2033;
	phases ABCN;
	nominal_voltage 7967.433714816836;
};

object node {
	name nbus2034;
	phases ABCN;
	nominal_voltage 7967.433714816836;
};

object node {
	name nbus2035;
	phases ABCN;
	nominal_voltage 7967.433714816836;
};

object node {
	name nbus2036;
	phases ABCN;
	nominal_voltage 7967.433714816836;
};

object node {
	name nbus2037;
	phases ABCN;
	nominal_voltage 7967.433714816836;
};

object node {
	name nbus2038;
	phases ABCN;
	nominal_voltage 7967.433714816836;
};

object node {
	name nbus2039;
	phases ABCN;
	nominal_voltage 7967.433714816836;
};

object node {
	name nbus2040;
	phases ABCN;
	nominal_voltage 7967.433714816836;
};

object node {
	name nbus2041;
	phases ABCN;
	nominal_voltage 7967.433714816836;
};

object node {
	name nbus2042;
	phases ABCN;
	nominal_voltage 7967.433714816836;
};

object node {
	name nbus2043;
	phases ABCN;
	nominal_voltage 7967.433714816836;
};

object node {
	name nbus2044;
	phases ABCN;
	nominal_voltage 7967.433714816836;
};

object node {
	name nbus2045;
	phases BN;
	nominal_voltage 7967.433714816836;
};

object node {
	name nbus2046;
	phases BN;
	nominal_voltage 7967.433714816836;
};

object node {
	name nbus2047;
	phases BN;
	nominal_voltage 7967.433714816836;
};

object node {
	name nbus2048;
	phases BN;
	nominal_voltage 7967.433714816836;
};

object node {
	name nbus2049;
	phases ABCN;
	nominal_voltage 7967.433714816836;
};

object node {
	name nbus2050;
	phases ABCN;
	nominal_voltage 7967.433714816836;
};

object node {
	name nbus2051;
	phases ABCN;
	nominal_voltage 7967.433714816836;
};

object node {
	name nbus2052;
	phases ABCN;
	nominal_voltage 7967.433714816836;
};

object node {
	name nbus2053;
	phases ABCN;
	nominal_voltage 7967.433714816836;
};

object node {
	name nbus2054;
	phases ABCN;
	nominal_voltage 7967.433714816836;
};

object node {
	name nbus2055;
	phases ABCN;
	nominal_voltage 7967.433714816836;
};

object node {
	name nbus2056;
	phases ABCN;
	nominal_voltage 7967.433714816836;
};

object node {
	name nbus2057;
	phases ABCN;
	nominal_voltage 7967.433714816836;
};

object node {
	name nbus2058;
	phases ABCN;
	nominal_voltage 7967.433714816836;
};

object node {
	name nbus2059;
	phases ABCN;
	nominal_voltage 7967.433714816836;
};

object node {
	name nbus2060;
	phases ABCN;
	nominal_voltage 7967.433714816836;
};

object node {
	name nbus3001;
	phases ABCN;
	nominal_voltage 7967.433714816836;
};

object node {
	name nbus3003;
	phases ABCN;
	nominal_voltage 7967.433714816836;
};

object node {
	name nbus3002;
	phases ABCN;
	nominal_voltage 7967.433714816836;
};

object node {
	name nbus3004;
	phases ABCN;
	nominal_voltage 7967.433714816836;
};

object node {
	name nbus3005;
	phases ABCN;
	nominal_voltage 7967.433714816836;
};

object node {
	name nbus3006;
	phases ABCN;
	nominal_voltage 7967.433714816836;
};

object node {
	name nbus3007;
	phases ABCN;
	nominal_voltage 7967.433714816836;
};

object node {
	name nbus3008;
	phases ABCN;
	nominal_voltage 7967.433714816836;
};

object node {
	name nbus3009;
	phases AN;
	nominal_voltage 7967.433714816836;
};

object node {
	name nbus3010;
	phases AN;
	nominal_voltage 7967.433714816836;
};

object node {
	name nbus3011;
	phases AN;
	nominal_voltage 7967.433714816836;
};

object node {
	name nbus3012;
	phases AN;
	nominal_voltage 7967.433714816836;
};

object node {
	name nbus3013;
	phases BN;
	nominal_voltage 7967.433714816836;
};

object node {
	name nbus3014;
	phases BN;
	nominal_voltage 7967.433714816836;
};

object node {
	name nbus3015;
	phases ABCN;
	nominal_voltage 7967.433714816836;
};

object node {
	name nbus3016;
	phases BN;
	nominal_voltage 7967.433714816836;
};

object node {
	name nbus3017;
	phases BN;
	nominal_voltage 7967.433714816836;
};

object node {
	name nbus3018;
	phases CN;
	nominal_voltage 7967.433714816836;
};

object node {
	name nbus3019;
	phases CN;
	nominal_voltage 7967.433714816836;
};

object node {
	name nbus3020;
	phases CN;
	nominal_voltage 7967.433714816836;
};

object node {
	name nbus3021;
	phases CN;
	nominal_voltage 7967.433714816836;
};

object node {
	name nbus3022;
	phases ABCN;
	nominal_voltage 7967.433714816836;
};

object node {
	name nbus3023;
	phases AN;
	nominal_voltage 7967.433714816836;
};

object node {
	name nbus3024;
	phases AN;
	nominal_voltage 7967.433714816836;
};

object node {
	name nbus3025;
	phases AN;
	nominal_voltage 7967.433714816836;
};

object node {
	name nbus3026;
	phases AN;
	nominal_voltage 7967.433714816836;
};

object node {
	name nbus3027;
	phases AN;
	nominal_voltage 7967.433714816836;
};

object node {
	name nbus3028;
	phases AN;
	nominal_voltage 7967.433714816836;
};

object node {
	name nbus3029;
	phases AN;
	nominal_voltage 7967.433714816836;
};

object node {
	name nbus3030;
	phases ABCN;
	nominal_voltage 7967.433714816836;
};

object node {
	name nbus3035;
	phases ABCN;
	nominal_voltage 7967.433714816836;
};

object node {
	name nbus3036;
	phases ABCN;
	nominal_voltage 7967.433714816836;
};

object node {
	name nbus3037;
	phases ABCN;
	nominal_voltage 7967.433714816836;
};

object node {
	name nbus3038;
	phases ABCN;
	nominal_voltage 7967.433714816836;
};

object node {
	name nbus3039;
	phases ABCN;
	nominal_voltage 7967.433714816836;
};

object node {
	name nbus3053;
	phases ABCN;
	nominal_voltage 7967.433714816836;
};

object node {
	name nbus3054;
	phases ABCN;
	nominal_voltage 7967.433714816836;
};

object node {
	name nbus3055;
	phases BN;
	nominal_voltage 7967.433714816836;
};

object node {
	name nbus3056;
	phases BN;
	nominal_voltage 7967.433714816836;
};

object node {
	name nbus3057;
	phases BN;
	nominal_voltage 7967.433714816836;
};

object node {
	name nbus3058;
	phases BN;
	nominal_voltage 7967.433714816836;
};

object node {
	name nbus3059;
	phases BN;
	nominal_voltage 7967.433714816836;
};

object node {
	name nbus3060;
	phases BN;
	nominal_voltage 7967.433714816836;
};

object node {
	name nbus3061;
	phases BN;
	nominal_voltage 7967.433714816836;
};

object node {
	name nbus3062;
	phases BN;
	nominal_voltage 7967.433714816836;
};

object node {
	name nbus3063;
	phases BN;
	nominal_voltage 7967.433714816836;
};

object node {
	name nbus3064;
	phases BN;
	nominal_voltage 7967.433714816836;
};

object node {
	name nbus3065;
	phases BN;
	nominal_voltage 7967.433714816836;
};

object node {
	name nbus3066;
	phases BN;
	nominal_voltage 7967.433714816836;
};

object node {
	name nbus3067;
	phases BN;
	nominal_voltage 7967.433714816836;
};

object node {
	name nbus3040;
	phases ABCN;
	nominal_voltage 7967.433714816836;
};

object node {
	name nbus3044;
	phases CN;
	nominal_voltage 7967.433714816836;
};

object node {
	name nbus3045;
	phases CN;
	nominal_voltage 7967.433714816836;
};

object node {
	name nbus3041;
	phases CN;
	nominal_voltage 7967.433714816836;
};

object node {
	name nbus3042;
	phases CN;
	nominal_voltage 7967.433714816836;
};

object node {
	name nbus3043;
	phases CN;
	nominal_voltage 7967.433714816836;
};

object node {
	name nbus3046;
	phases ABCN;
	nominal_voltage 7967.433714816836;
};

object node {
	name nbus3047;
	phases ABCN;
	nominal_voltage 7967.433714816836;
};

object node {
	name nbus3048;
	phases ABCN;
	nominal_voltage 7967.433714816836;
};

object node {
	name nbus3049;
	phases ABCN;
	nominal_voltage 7967.433714816836;
};

object node {
	name nbus3050;
	phases ABCN;
	nominal_voltage 7967.433714816836;
};

object node {
	name nbus3051;
	phases ABCN;
	nominal_voltage 7967.433714816836;
};

object node {
	name nbus3052;
	phases ABCN;
	nominal_voltage 7967.433714816836;
};

object node {
	name nbus3031;
	phases ABCN;
	nominal_voltage 7967.433714816836;
};

object node {
	name nbus3032;
	phases ABCN;
	nominal_voltage 7967.433714816836;
};

object node {
	name nbus3033;
	phases ABCN;
	nominal_voltage 7967.433714816836;
};

object node {
	name nbus3034;
	phases ABCN;
	nominal_voltage 7967.433714816836;
};

object node {
	name nbus3068;
	phases ABCN;
	nominal_voltage 7967.433714816836;
};

object node {
	name nbus3069;
	phases ABCN;
	nominal_voltage 7967.433714816836;
};

object node {
	name nbus3070;
	phases ABCN;
	nominal_voltage 7967.433714816836;
};

object node {
	name nbus3071;
	phases ABCN;
	nominal_voltage 7967.433714816836;
};

object node {
	name nbus3072;
	phases ABCN;
	nominal_voltage 7967.433714816836;
};

object node {
	name nbus3073;
	phases ABCN;
	nominal_voltage 7967.433714816836;
};

object node {
	name nbus3074;
	phases ABCN;
	nominal_voltage 7967.433714816836;
};

object node {
	name nbus3075;
	phases ABCN;
	nominal_voltage 7967.433714816836;
};

object node {
	name nbus3076;
	phases ABCN;
	nominal_voltage 7967.433714816836;
};

object node {
	name nbus3077;
	phases ABCN;
	nominal_voltage 7967.433714816836;
};

object node {
	name nbus3078;
	phases ABCN;
	nominal_voltage 7967.433714816836;
};

object node {
	name nbus3079;
	phases ABCN;
	nominal_voltage 7967.433714816836;
};

object node {
	name nbus3080;
	phases ABCN;
	nominal_voltage 7967.433714816836;
};

object node {
	name nbus3081;
	phases ABCN;
	nominal_voltage 7967.433714816836;
};

object node {
	name nbus3082;
	phases ABCN;
	nominal_voltage 7967.433714816836;
};

object node {
	name nbus3083;
	phases AN;
	nominal_voltage 7967.433714816836;
};

object node {
	name nbus3084;
	phases AN;
	nominal_voltage 7967.433714816836;
};

object node {
	name nbus3085;
	phases AN;
	nominal_voltage 7967.433714816836;
};

object node {
	name nbus3086;
	phases AN;
	nominal_voltage 7967.433714816836;
};

object node {
	name nbus3087;
	phases AN;
	nominal_voltage 7967.433714816836;
};

object node {
	name nbus3088;
	phases AN;
	nominal_voltage 7967.433714816836;
};

object node {
	name nbus3089;
	phases AN;
	nominal_voltage 7967.433714816836;
};

object node {
	name nbus3090;
	phases AN;
	nominal_voltage 7967.433714816836;
};

object node {
	name nbus3091;
	phases AN;
	nominal_voltage 7967.433714816836;
};

object node {
	name nbus3092;
	phases ABCN;
	nominal_voltage 7967.433714816836;
};

object node {
	name nbus3093;
	phases AN;
	nominal_voltage 7967.433714816836;
};

object node {
	name nbus3094;
	phases AN;
	nominal_voltage 7967.433714816836;
};

object node {
	name nbus3095;
	phases AN;
	nominal_voltage 7967.433714816836;
};

object node {
	name nbus3096;
	phases AN;
	nominal_voltage 7967.433714816836;
};

object node {
	name nbus3097;
	phases AN;
	nominal_voltage 7967.433714816836;
};

object node {
	name nbus3098;
	phases BN;
	nominal_voltage 7967.433714816836;
};

object node {
	name nbus3099;
	phases BN;
	nominal_voltage 7967.433714816836;
};

object node {
	name nbus3100;
	phases ABCN;
	nominal_voltage 7967.433714816836;
};

object node {
	name nbus3101;
	phases CN;
	nominal_voltage 7967.433714816836;
};

object node {
	name nbus3102;
	phases CN;
	nominal_voltage 7967.433714816836;
};

object node {
	name nbus3103;
	phases CN;
	nominal_voltage 7967.433714816836;
};

object node {
	name nbus3104;
	phases CN;
	nominal_voltage 7967.433714816836;
};

object node {
	name nbus3105;
	phases CN;
	nominal_voltage 7967.433714816836;
};

object node {
	name nbus3106;
	phases CN;
	nominal_voltage 7967.433714816836;
};

object node {
	name nbus3107;
	phases ABCN;
	nominal_voltage 7967.433714816836;
};

object node {
	name nbus3108;
	phases AN;
	nominal_voltage 7967.433714816836;
};

object node {
	name nbus3109;
	phases AN;
	nominal_voltage 7967.433714816836;
};

object node {
	name nbus3110;
	phases AN;
	nominal_voltage 7967.433714816836;
};

object node {
	name nbus3111;
	phases AN;
	nominal_voltage 7967.433714816836;
};

object node {
	name nbus3112;
	phases AN;
	nominal_voltage 7967.433714816836;
};

object node {
	name nbus3113;
	phases BN;
	nominal_voltage 7967.433714816836;
};

object node {
	name nbus3114;
	phases BN;
	nominal_voltage 7967.433714816836;
};

object node {
	name nbus3115;
	phases BN;
	nominal_voltage 7967.433714816836;
};

object node {
	name nbus3116;
	phases BN;
	nominal_voltage 7967.433714816836;
};

object node {
	name nbus3117;
	phases BN;
	nominal_voltage 7967.433714816836;
};

object node {
	name nbus3118;
	phases ABCN;
	nominal_voltage 7967.433714816836;
};

object node {
	name nbus3119;
	phases BN;
	nominal_voltage 7967.433714816836;
};

object node {
	name nbus3120;
	phases BN;
	nominal_voltage 7967.433714816836;
};

object node {
	name nbus3121;
	phases BN;
	nominal_voltage 7967.433714816836;
};

object node {
	name nbus3122;
	phases BN;
	nominal_voltage 7967.433714816836;
};

object node {
	name nbus3123;
	phases BN;
	nominal_voltage 7967.433714816836;
};

object node {
	name nbus3124;
	phases BN;
	nominal_voltage 7967.433714816836;
};

object node {
	name nbus3125;
	phases BN;
	nominal_voltage 7967.433714816836;
};

object node {
	name nbus3126;
	phases BN;
	nominal_voltage 7967.433714816836;
};

object node {
	name nbus3127;
	phases BN;
	nominal_voltage 7967.433714816836;
};

object node {
	name nbus3128;
	phases BN;
	nominal_voltage 7967.433714816836;
};

object node {
	name nbus3129;
	phases BN;
	nominal_voltage 7967.433714816836;
};

object node {
	name nbus3130;
	phases BN;
	nominal_voltage 7967.433714816836;
};

object node {
	name nbus3131;
	phases BN;
	nominal_voltage 7967.433714816836;
};

object node {
	name nbus3132;
	phases AN;
	nominal_voltage 7967.433714816836;
};

object node {
	name nbus3133;
	phases AN;
	nominal_voltage 7967.433714816836;
};

object node {
	name nbus3134;
	phases AN;
	nominal_voltage 7967.433714816836;
};

object node {
	name nbus3135;
	phases AN;
	nominal_voltage 7967.433714816836;
};

object node {
	name nbus3136;
	phases AN;
	nominal_voltage 7967.433714816836;
};

object node {
	name nbus3137;
	phases AN;
	nominal_voltage 7967.433714816836;
};

object node {
	name nbus3138;
	phases AN;
	nominal_voltage 7967.433714816836;
};

object node {
	name nbus3139;
	phases AN;
	nominal_voltage 7967.433714816836;
};

object node {
	name nbus3140;
	phases CN;
	nominal_voltage 7967.433714816836;
};

object node {
	name nbus3141;
	phases CN;
	nominal_voltage 7967.433714816836;
};

object node {
	name nbus3142;
	phases CN;
	nominal_voltage 7967.433714816836;
};

object node {
	name nbus3143;
	phases CN;
	nominal_voltage 7967.433714816836;
};

object node {
	name nbus3148;
	phases CN;
	nominal_voltage 7967.433714816836;
};

object node {
	name nbus3149;
	phases CN;
	nominal_voltage 7967.433714816836;
};

object node {
	name nbus3150;
	phases CN;
	nominal_voltage 7967.433714816836;
};

object node {
	name nbus3151;
	phases CN;
	nominal_voltage 7967.433714816836;
};

object node {
	name nbus3152;
	phases CN;
	nominal_voltage 7967.433714816836;
};

object node {
	name nbus3153;
	phases CN;
	nominal_voltage 7967.433714816836;
};

object node {
	name nbus3154;
	phases CN;
	nominal_voltage 7967.433714816836;
};

object node {
	name nbus3155;
	phases CN;
	nominal_voltage 7967.433714816836;
};

object node {
	name nbus3156;
	phases CN;
	nominal_voltage 7967.433714816836;
};

object node {
	name nbus3144;
	phases CN;
	nominal_voltage 7967.433714816836;
};

object node {
	name nbus3145;
	phases CN;
	nominal_voltage 7967.433714816836;
};

object node {
	name nbus3146;
	phases CN;
	nominal_voltage 7967.433714816836;
};

object node {
	name nbus3147;
	phases CN;
	nominal_voltage 7967.433714816836;
};

object node {
	name nbus3157;
	phases CN;
	nominal_voltage 7967.433714816836;
};

object node {
	name nbus3158;
	phases CN;
	nominal_voltage 7967.433714816836;
};

object node {
	name nbus3159;
	phases CN;
	nominal_voltage 7967.433714816836;
};

object node {
	name nbus3160;
	phases CN;
	nominal_voltage 7967.433714816836;
};

object node {
	name nbus3161;
	phases CN;
	nominal_voltage 7967.433714816836;
};

object node {
	name nbus3162;
	phases CN;
	nominal_voltage 7967.433714816836;
};

object node {
	name nbus1;
	phases ABCN;
	nominal_voltage 7967.433714816836;
};

object node {
	name GLMswing;
	phases ABCN;
	bustype SWING;
	nominal_voltage 39837.16857408418;
};

object node {
	name neq_source_bus;
	phases ABCN;
	nominal_voltage 39837.16857408418;
};

object underground_line {
	length 5280;
	configuration line_Vsource;
	name vsource_inpedance;
	from GLMswing;
	to neq_source_bus;
	phases ABC;
};

object node {
	name nbus_xfmr;
	phases ABCN;
	nominal_voltage 7967.433714816836;
};

object meter {
	name nt_bus1003_l;
	phases ABCN;
	nominal_voltage 120;
};

object node {
	name nt_bus1004_l;
	phases ABCN;
	nominal_voltage 120.0;
};

object node {
	name nt_bus1005_l;
	phases ABCN;
	nominal_voltage 120;
};

object node {
	name nt_bus1006_l;
	phases ABD;
	nominal_voltage 120;
};

object node {
	name nt_bus1007_l;
	phases ABD;
	nominal_voltage 120;
};

object node {
	name nt_bus1008_l;
	phases ABCN;
	nominal_voltage 120;
};

object node {
	name nt_bus1009_l;
	phases ABCN;
	nominal_voltage 120;
};

object node {
	name nt_bus1010_l;
	phases ABCN;
	nominal_voltage 120;
};

object triplex_node {
	name nt_bus1011_l;
	phases AS;
	nominal_voltage 120;
};

object triplex_node {
	name nt_bus1012_l;
	phases BS;
	nominal_voltage 120;
};

object node {
	name nt_bus1013_l;
	phases ABCN;
	nominal_voltage 120;
};

object triplex_node {
	name nt_bus1014_l;
	phases BS;
	nominal_voltage 120;
};

object triplex_node {
	name nt_bus1015_l;
	phases BS;
	nominal_voltage 120;
};

object triplex_node {
	name nt_bus1016_l;
	phases CS;
	nominal_voltage 120;
};

object triplex_node {
	name nt_bus1017_l;
	phases CS;
	nominal_voltage 120;
};

object node {
	name nt_bus2002_l;
	phases ABCN;
	nominal_voltage 120;
};

object node {
	name nt_bus2003_l;
	phases ABCN;
	nominal_voltage 120;
};

object node {
	name nt_bus2005_l;
	phases ABCN;
	nominal_voltage 120;
};

object triplex_node {
	name nt_bus2008_l;
	phases AS;
	nominal_voltage 120;
};

object triplex_node {
	name nt_bus2009_l;
	phases AS;
	nominal_voltage 120;
};

object node {
	name nt_bus2010_l;
	phases ABCN;
	nominal_voltage 120;
};

object node {
	name nt_bus2011_l;
	phases ABCN;
	nominal_voltage 120;
};

object triplex_node {
	name nt_bus2014_l;
	phases BS;
	nominal_voltage 120;
};

object triplex_node {
	name nt_bus2015_l;
	phases BS;
	nominal_voltage 120;
};

object triplex_node {
	name nt_bus2016_l;
	phases BS;
	nominal_voltage 120;
};

object triplex_node {
	name nt_bus2017_l;
	phases BS;
	nominal_voltage 120;
};

object triplex_node {
	name nt_bus2018_l;
	phases BS;
	nominal_voltage 120;
};

object triplex_node {
	name nt_bus2020_l;
	phases BS;
	nominal_voltage 120;
};

object triplex_node {
	name nt_bus2022_l;
	phases CS;
	nominal_voltage 120;
};

object triplex_node {
	name nt_bus2023_l;
	phases CS;
	nominal_voltage 120;
};

object triplex_node {
	name nt_bus2024_l;
	phases CS;
	nominal_voltage 120;
};

object triplex_node {
	name nt_bus2025_l;
	phases CS;
	nominal_voltage 120;
};

object triplex_node {
	name nt_bus2028_l;
	phases AS;
	nominal_voltage 120;
};

object node {
	name nt_bus2029_l;
	phases ABCN;
	nominal_voltage 120;
};

object node {
	name nt_bus2030_l;
	phases ABCN;
	nominal_voltage 120;
};

object triplex_node {
	name nt_bus2031_l;
	phases AS;
	nominal_voltage 120;
};

object node {
	name nt_bus2032_l;
	phases ABCN;
	nominal_voltage 120;
};

object node {
	name nt_bus2034_l;
	phases ABCN;
	nominal_voltage 120;
};

object node {
	name nt_bus2035_l;
	phases ABCN;
	nominal_voltage 120;
};

object node {
	name nt_bus2037_l;
	phases ABCN;
	nominal_voltage 120;
};

object node {
	name nt_bus2040_l;
	phases ABCN;
	nominal_voltage 120;
};

object node {
	name nt_bus2041_l;
	phases ABCN;
	nominal_voltage 120;
};

object node {
	name nt_bus2042_l;
	phases ABCN;
	nominal_voltage 120;
};

object node {
	name nt_bus2043_l;
	phases ABCN;
	nominal_voltage 120;
};

object triplex_node {
	name nt_bus2045_l;
	phases BS;
	nominal_voltage 120;
};

object triplex_node {
	name nt_bus2046_l;
	phases BS;
	nominal_voltage 120;
};

object triplex_node {
	name nt_bus2047_l;
	phases BS;
	nominal_voltage 120;
};

object triplex_node {
	name nt_bus2048_l;
	phases BS;
	nominal_voltage 120;
};

object triplex_node {
	name nt_bus2049_l;
	phases CS;
	nominal_voltage 120;
};

object triplex_node {
	name nt_bus2050_l;
	phases CS;
	nominal_voltage 120;
};

object triplex_node {
	name nt_bus2051_l;
	phases CS;
	nominal_voltage 120;
};

object node {
	name nt_bus2052_l;
	phases ABCN;
	nominal_voltage 120;
};

object node {
	name nt_bus2053_l;
	phases ABCN;
	nominal_voltage 120;
};

object triplex_node {
	name nt_bus2054_l;
	phases AS;
	nominal_voltage 120;
};

object triplex_node {
	name nt_bus2055_l;
	phases AS;
	nominal_voltage 120;
};

object triplex_node {
	name nt_bus2056_l;
	phases AS;
	nominal_voltage 120;
};

object node {
	name nt_bus2058_l;
	phases ABCN;
	nominal_voltage 120;
};

object triplex_node {
	name nt_bus2059_l;
	phases BS;
	nominal_voltage 120;
};

object triplex_node {
	name nt_bus2060_l;
	phases BS;
	nominal_voltage 120;
};

object node {
	name nt_bus3002_l;
	phases ABCN;
	nominal_voltage 120;
};

object node {
	name nt_bus3004_l;
	phases ABCN;
	nominal_voltage 120;
};

object node {
	name nt_bus3006_l;
	phases ABCN;
	nominal_voltage 120;
};

object node {
	name nt_bus3007_l;
	phases ABCN;
	nominal_voltage 120;
};

object triplex_node {
	name nt_bus3009_l;
	phases AS;
	nominal_voltage 120;
};

object triplex_node {
	name nt_bus3010_l;
	phases AS;
	nominal_voltage 120;
};

object triplex_node {
	name nt_bus3011_l;
	phases AS;
	nominal_voltage 120;
};

object triplex_node {
	name nt_bus3012_l;
	phases AS;
	nominal_voltage 120;
};

object triplex_node {
	name nt_bus3013_l;
	phases BS;
	nominal_voltage 120;
};

object triplex_node {
	name nt_bus3014_l;
	phases BS;
	nominal_voltage 120;
};

object triplex_node {
	name nt_bus3016_l;
	phases BS;
	nominal_voltage 120;
};

object triplex_node {
	name nt_bus3017_l;
	phases BS;
	nominal_voltage 120;
};

object triplex_node {
	name nt_bus3018_l;
	phases CS;
	nominal_voltage 120;
};

object triplex_node {
	name nt_bus3019_l;
	phases CS;
	nominal_voltage 120;
};

object triplex_node {
	name nt_bus3020_l;
	phases CS;
	nominal_voltage 120;
};

object triplex_node {
	name nt_bus3021_l;
	phases CS;
	nominal_voltage 120;
};

object triplex_node {
	name nt_bus3023_l;
	phases AS;
	nominal_voltage 120;
};

object triplex_node {
	name nt_bus3024_l;
	phases AS;
	nominal_voltage 120;
};

object triplex_node {
	name nt_bus3025_l;
	phases AS;
	nominal_voltage 120;
};

object triplex_node {
	name nt_bus3026_l;
	phases AS;
	nominal_voltage 120;
};

object triplex_node {
	name nt_bus3027_l;
	phases AS;
	nominal_voltage 120;
};

object triplex_node {
	name nt_bus3028_l;
	phases AS;
	nominal_voltage 120;
};

object triplex_node {
	name nt_bus3029_l;
	phases AS;
	nominal_voltage 120;
};

object node {
	name nt_bus3031_l;
	phases ABCN;
	nominal_voltage 120;
};

object node {
	name nt_bus3032_l;
	phases ABCN;
	nominal_voltage 120;
};

object node {
	name nt_bus3033_l;
	phases ABCN;
	nominal_voltage 120;
};

object node {
	name nt_bus3034_l;
	phases ABCN;
	nominal_voltage 120;
};

object node {
	name nt_bus3035_l;
	phases ABCN;
	nominal_voltage 120;
};

object node {
	name nt_bus3036_l;
	phases ABCN;
	nominal_voltage 120;
};

object node {
	name nt_bus3037_l;
	phases ABCN;
	nominal_voltage 120;
};

object node {
	name nt_bus3038_l;
	phases ABCN;
	nominal_voltage 120;
};

object node {
	name nt_bus3039_l;
	phases ABCN;
	nominal_voltage 120;
};

object triplex_node {
	name nt_bus3041_l;
	phases CS;
	nominal_voltage 120;
};

object triplex_node {
	name nt_bus3042_l;
	phases CS;
	nominal_voltage 120;
};

object triplex_node {
	name nt_bus3043_l;
	phases CS;
	nominal_voltage 120;
};

object triplex_node {
	name nt_bus3044_l;
	phases CS;
	nominal_voltage 120;
};

object triplex_node {
	name nt_bus3045_l;
	phases CS;
	nominal_voltage 120;
};

object node {
	name nt_bus3047_l;
	phases ABCN;
	nominal_voltage 120;
};

object node {
	name nt_bus3048_l;
	phases ABCN;
	nominal_voltage 120;
};

object node {
	name nt_bus3049_l;
	phases ABCN;
	nominal_voltage 120;
};

object node {
	name nt_bus3050_l;
	phases ABCN;
	nominal_voltage 120;
};

object node {
	name nt_bus3051_l;
	phases ABCN;
	nominal_voltage 120;
};

object node {
	name nt_bus3052_l;
	phases ABCN;
	nominal_voltage 120;
};

object node {
	name nt_bus3054_l;
	phases ABCN;
	nominal_voltage 120;
};

object triplex_node {
	name nt_bus3056_l;
	phases BS;
	nominal_voltage 120;
};

object triplex_node {
	name nt_bus3057_l;
	phases BS;
	nominal_voltage 120;
};

object triplex_node {
	name nt_bus3058_l;
	phases BS;
	nominal_voltage 120;
};

object triplex_node {
	name nt_bus3059_l;
	phases BS;
	nominal_voltage 120;
};

object triplex_node {
	name nt_bus3060_l;
	phases BS;
	nominal_voltage 120;
};

object triplex_node {
	name nt_bus3061_l;
	phases BS;
	nominal_voltage 120;
};

object triplex_node {
	name nt_bus3062_l;
	phases BS;
	nominal_voltage 120;
};

object triplex_node {
	name nt_bus3063_l;
	phases BS;
	nominal_voltage 120;
};

object triplex_node {
	name nt_bus3064_l;
	phases BS;
	nominal_voltage 120;
};

object triplex_node {
	name nt_bus3065_l;
	phases BS;
	nominal_voltage 120;
};

object triplex_node {
	name nt_bus3066_l;
	phases BS;
	nominal_voltage 120;
};

object triplex_node {
	name nt_bus3067_l;
	phases BS;
	nominal_voltage 120;
};

object node {
	name nt_bus3070_l;
	phases ABCN;
	nominal_voltage 120;
};

object node {
	name nt_bus3071_l;
	phases ABCN;
	nominal_voltage 120;
};

object node {
	name nt_bus3072_l;
	phases ABCN;
	nominal_voltage 120;
};

object node {
	name nt_bus3073_l;
	phases ABCN;
	nominal_voltage 120;
};

object node {
	name nt_bus3074_l;
	phases ABCN;
	nominal_voltage 120;
};

object node {
	name nt_bus3077_l;
	phases ABCN;
	nominal_voltage 120;
};

object node {
	name nt_bus3078_l;
	phases ABCN;
	nominal_voltage 120;
};

object node {
	name nt_bus3081_l;
	phases ABCN;
	nominal_voltage 120;
};

object triplex_node {
	name nt_bus3083_l;
	phases AS;
	nominal_voltage 120;
};

object triplex_node {
	name nt_bus3084_l;
	phases AS;
	nominal_voltage 120;
};

object triplex_node {
	name nt_bus3085_l;
	phases AS;
	nominal_voltage 120;
};

object triplex_node {
	name nt_bus3086_l;
	phases AS;
	nominal_voltage 120;
};

object triplex_node {
	name nt_bus3087_l;
	phases AS;
	nominal_voltage 120;
};

object triplex_node {
	name nt_bus3088_l;
	phases AS;
	nominal_voltage 120;
};

object triplex_node {
	name nt_bus3089_l;
	phases AS;
	nominal_voltage 120;
};

object triplex_node {
	name nt_bus3090_l;
	phases AS;
	nominal_voltage 120;
};

object triplex_node {
	name nt_bus3091_l;
	phases AS;
	nominal_voltage 120;
};

object triplex_node {
	name nt_bus3093_l;
	phases AS;
	nominal_voltage 120;
};

object triplex_node {
	name nt_bus3094_l;
	phases AS;
	nominal_voltage 120;
};

object triplex_node {
	name nt_bus3095_l;
	phases AS;
	nominal_voltage 120;
};

object triplex_node {
	name nt_bus3096_l;
	phases AS;
	nominal_voltage 120;
};

object triplex_node {
	name nt_bus3097_l;
	phases AS;
	nominal_voltage 120;
};

object triplex_node {
	name nt_bus3098_l;
	phases BS;
	nominal_voltage 120;
};

object triplex_node {
	name nt_bus3099_l;
	phases BS;
	nominal_voltage 120;
};

object triplex_node {
	name nt_bus3101_l;
	phases CS;
	nominal_voltage 120;
};

object triplex_node {
	name nt_bus3102_l;
	phases CS;
	nominal_voltage 120;
};

object triplex_node {
	name nt_bus3103_l;
	phases CS;
	nominal_voltage 120;
};

object triplex_node {
	name nt_bus3104_l;
	phases CS;
	nominal_voltage 120;
};

object triplex_node {
	name nt_bus3105_l;
	phases CS;
	nominal_voltage 120;
};

object triplex_node {
	name nt_bus3106_l;
	phases CS;
	nominal_voltage 120;
};

object triplex_node {
	name nt_bus3108_l;
	phases AS;
	nominal_voltage 120;
};

object triplex_node {
	name nt_bus3109_l;
	phases AS;
	nominal_voltage 120;
};

object triplex_node {
	name nt_bus3110_l;
	phases AS;
	nominal_voltage 120;
};

object triplex_node {
	name nt_bus3111_l;
	phases AS;
	nominal_voltage 120;
};

object triplex_node {
	name nt_bus3112_l;
	phases AS;
	nominal_voltage 120;
};

object triplex_node {
	name nt_bus3114_l;
	phases BS;
	nominal_voltage 120;
};

object triplex_node {
	name nt_bus3115_l;
	phases BS;
	nominal_voltage 120;
};

object triplex_node {
	name nt_bus3116_l;
	phases BS;
	nominal_voltage 120;
};

object triplex_node {
	name nt_bus3117_l;
	phases BS;
	nominal_voltage 120;
};

object triplex_node {
	name nt_bus3120_l;
	phases BS;
	nominal_voltage 120;
};

object triplex_node {
	name nt_bus3121_l;
	phases BS;
	nominal_voltage 120;
};

object triplex_node {
	name nt_bus3122_l;
	phases BS;
	nominal_voltage 120;
};

object triplex_node {
	name nt_bus3123_l;
	phases BS;
	nominal_voltage 120;
};

object triplex_node {
	name nt_bus3124_l;
	phases BS;
	nominal_voltage 120;
};

object triplex_node {
	name nt_bus3125_l;
	phases BS;
	nominal_voltage 120;
};

object triplex_node {
	name nt_bus3126_l;
	phases BS;
	nominal_voltage 120;
};

object triplex_node {
	name nt_bus3127_l;
	phases BS;
	nominal_voltage 120;
};

object triplex_node {
	name nt_bus3128_l;
	phases BS;
	nominal_voltage 120;
};

object triplex_node {
	name nt_bus3129_l;
	phases BS;
	nominal_voltage 120;
};

object triplex_node {
	name nt_bus3130_l;
	phases BS;
	nominal_voltage 120;
};

object triplex_node {
	name nt_bus3131_l;
	phases BS;
	nominal_voltage 120;
};

object triplex_node {
	name nt_bus3132_l;
	phases AS;
	nominal_voltage 120;
};

object triplex_node {
	name nt_bus3134_l;
	phases AS;
	nominal_voltage 120;
};

object triplex_node {
	name nt_bus3135_l;
	phases AS;
	nominal_voltage 120;
};

object triplex_node {
	name nt_bus3136_l;
	phases AS;
	nominal_voltage 120;
};

object triplex_node {
	name nt_bus3137_l;
	phases AS;
	nominal_voltage 120;
};

object triplex_node {
	name nt_bus3138_l;
	phases AS;
	nominal_voltage 120;
};

object triplex_node {
	name nt_bus3139_l;
	phases AS;
	nominal_voltage 120;
};

object triplex_node {
	name nt_bus3141_l;
	phases CS;
	nominal_voltage 120;
};

object triplex_node {
	name nt_bus3142_l;
	phases CS;
	nominal_voltage 120;
};

object triplex_node {
	name nt_bus3143_l;
	phases CS;
	nominal_voltage 120;
};

object triplex_node {
	name nt_bus3144_l;
	phases CS;
	nominal_voltage 120;
};

object triplex_node {
	name nt_bus3145_l;
	phases CS;
	nominal_voltage 120;
};

object triplex_node {
	name nt_bus3146_l;
	phases CS;
	nominal_voltage 120;
};

object triplex_node {
	name nt_bus3147_l;
	phases CS;
	nominal_voltage 120;
};

object triplex_node {
	name nt_bus3148_l;
	phases CS;
	nominal_voltage 120;
};

object triplex_node {
	name nt_bus3149_l;
	phases CS;
	nominal_voltage 120;
};

object triplex_node {
	name nt_bus3150_l;
	phases CS;
	nominal_voltage 120;
};

object triplex_node {
	name nt_bus3151_l;
	phases CS;
	nominal_voltage 120;
};

object triplex_node {
	name nt_bus3152_l;
	phases CS;
	nominal_voltage 120;
};

object triplex_node {
	name nt_bus3153_l;
	phases CS;
	nominal_voltage 120;
};

object triplex_node {
	name nt_bus3154_l;
	phases CS;
	nominal_voltage 120;
};

object triplex_node {
	name nt_bus3155_l;
	phases CS;
	nominal_voltage 120;
};

object triplex_node {
	name nt_bus3157_l;
	phases CS;
	nominal_voltage 120;
};

object triplex_node {
	name nt_bus3158_l;
	phases CS;
	nominal_voltage 120;
};

object triplex_node {
	name nt_bus3159_l;
	phases CS;
	nominal_voltage 120;
};

object triplex_node {
	name nt_bus3160_l;
	phases CS;
	nominal_voltage 120;
};

object triplex_node {
	name nt_bus3161_l;
	phases CS;
	nominal_voltage 120;
};

object triplex_node {
	name nt_bus3162_l;
	phases CS;
	nominal_voltage 120;
};

object capacitor {
	name ncap_201;
	nominal_voltage 7967.433714816836;
	parent nbus2038;
	capacitor_A 16666.666666666666;
	switchA CLOSED;
	capacitor_B 16666.666666666666;
	switchB CLOSED;
	capacitor_C 16666.666666666666;
	switchC CLOSED;
	phases ABCN;
	phases_connected ABCN;
	control MANUAL;
};

object capacitor {
	name ncap_301;
	nominal_voltage 7967.433714816836;
	parent nbus3079;
	capacitor_A 16666.666666666666;
	switchA CLOSED;
	capacitor_B 16666.666666666666;
	switchB CLOSED;
	capacitor_C 16666.666666666666;
	switchC CLOSED;
	phases ABCN;
	phases_connected ABCN;
	control MANUAL;
};

object load {
	name nload_load_1003;
	nominal_voltage 120;
	parent nt_bus1003_l;
	constant_power_A TphaseLOAD_1.value*0.3333333333333333;
	constant_power_B TphaseLOAD_1.value*0.3333333333333333;
	constant_power_C TphaseLOAD_1.value*0.3333333333333333;
};

object load {
	name nload_load_1004;
	nominal_voltage 120.0;
	parent nt_bus1004_l;
	constant_power_A TphaseLOAD_2.value*0.3333333333333333;
	constant_power_B TphaseLOAD_2.value*0.3333333333333333;
	constant_power_C TphaseLOAD_2.value*0.3333333333333333;
};

object load {
	name nload_load_1005;
	nominal_voltage 120;
	parent nt_bus1005_l;
	constant_power_A TphaseLOAD_3.value*0.3333333333333333;
	constant_power_B TphaseLOAD_3.value*0.3333333333333333;
	constant_power_C TphaseLOAD_3.value*0.3333333333333333;
};

object load {
	name nload_load_1006;
	nominal_voltage 120;
	parent nt_bus1006_l;
	constant_power_AB TphaseLOAD_4.value;
};

object load {
	name nload_load_1007;
	nominal_voltage 120;
	parent nt_bus1007_l;
	constant_power_AB TphaseLOAD_5.value;
};

object load {
	name nload_load_1008;
	nominal_voltage 120;
	parent nt_bus1008_l;
	constant_power_A TphaseLOAD_6.value*0.3333333333333333;
	constant_power_B TphaseLOAD_6.value*0.3333333333333333;
	constant_power_C TphaseLOAD_6.value*0.3333333333333333;
};

object load {
	name nload_load_1009;
	nominal_voltage 120;
	parent nt_bus1009_l;
	constant_power_A TphaseLOAD_7.value*0.3333333333333333;
	constant_power_B TphaseLOAD_7.value*0.3333333333333333;
	constant_power_C TphaseLOAD_7.value*0.3333333333333333;
};

object load {
	name nload_load_1010;
	nominal_voltage 120;
	parent nt_bus1010_l;
	constant_power_A TphaseLOAD_8.value*0.3333333333333333;
	constant_power_B TphaseLOAD_8.value*0.3333333333333333;
	constant_power_C TphaseLOAD_8.value*0.3333333333333333;
};

object triplex_load {
	name nload_load_1011;
	nominal_voltage 120;
	parent nt_bus1011_l;
	phases AS;
	constant_power_12 TphaseLOAD_9.value;
};

object triplex_load {
	name nload_load_1012;
	nominal_voltage 120;
	parent nt_bus1012_l;
	phases BS;
	constant_power_12 TphaseLOAD_10.value;
};

object load {
	name nload_load_1013;
	nominal_voltage 120;
	parent nt_bus1013_l;
	constant_power_A TphaseLOAD_11.value*0.3333333333333333;
	constant_power_B TphaseLOAD_11.value*0.3333333333333333;
	constant_power_C TphaseLOAD_11.value*0.3333333333333333;
};

object triplex_load {
	name nload_load_1014;
	nominal_voltage 120;
	parent nt_bus1014_l;
	phases BS;
	constant_power_12 TphaseLOAD_12.value;
};

object triplex_load {
	name nload_load_1015;
	nominal_voltage 120;
	parent nt_bus1015_l;
	phases BS;
	constant_power_12 TphaseLOAD_13.value;
};

object triplex_load {
	name nload_load_1016;
	nominal_voltage 120;
	parent nt_bus1016_l;
	phases CS;
	constant_power_12 TphaseLOAD_14.value;
};

object triplex_load {
	name nload_load_1017;
	nominal_voltage 120;
	parent nt_bus1017_l;
	phases CS;
	constant_power_12 TphaseLOAD_15.value;
};

object load {
	name nload_load_2002;
	nominal_voltage 120;
	parent nt_bus2002_l;
	constant_power_A TphaseLOAD_16.value*0.3333333333333333;
	constant_power_B TphaseLOAD_16.value*0.3333333333333333;
	constant_power_C TphaseLOAD_16.value*0.3333333333333333;
};

object load {
	name nload_load_2003;
	nominal_voltage 120;
	parent nt_bus2003_l;
	constant_power_A TphaseLOAD_17.value*0.3333333333333333;
	constant_power_B TphaseLOAD_17.value*0.3333333333333333;
	constant_power_C TphaseLOAD_17.value*0.3333333333333333;
};

object load {
	name nload_load_2005;
	nominal_voltage 120;
	parent nt_bus2005_l;
	constant_power_A TphaseLOAD_18.value*0.3333333333333333;
	constant_power_B TphaseLOAD_18.value*0.3333333333333333;
	constant_power_C TphaseLOAD_18.value*0.3333333333333333;
};

object triplex_load {
	name nload_load_2008;
	nominal_voltage 120;
	parent nt_bus2008_l;
	phases AS;
	constant_power_12 TphaseLOAD_19.value;
};

object triplex_load {
	name nload_load_2009;
	nominal_voltage 120;
	parent nt_bus2009_l;
	phases AS;
	constant_power_12 TphaseLOAD_20.value;
};

object load {
	name nload_load_2010;
	nominal_voltage 120;
	parent nt_bus2010_l;
	constant_power_A TphaseLOAD_21.value*0.3333333333333333;
	constant_power_B TphaseLOAD_21.value*0.3333333333333333;
	constant_power_C TphaseLOAD_21.value*0.3333333333333333;
};

object load {
	name nload_load_2011;
	nominal_voltage 120;
	parent nt_bus2011_l;
	constant_power_A TphaseLOAD_22.value*0.3333333333333333;
	constant_power_B TphaseLOAD_22.value*0.3333333333333333;
	constant_power_C TphaseLOAD_22.value*0.3333333333333333;
};

object triplex_load {
	name nload_load_2014;
	nominal_voltage 120;
	parent nt_bus2014_l;
	phases BS;
	constant_power_12 TphaseLOAD_23.value;
};

object triplex_load {
	name nload_load_2015;
	nominal_voltage 120;
	parent nt_bus2015_l;
	phases BS;
	constant_power_12 TphaseLOAD_24.value;
};

object triplex_load {
	name nload_load_2016;
	nominal_voltage 120;
	parent nt_bus2016_l;
	phases BS;
	constant_power_12 TphaseLOAD_25.value;
};

object triplex_load {
	name nload_load_2017;
	nominal_voltage 120;
	parent nt_bus2017_l;
	phases BS;
	constant_power_12 TphaseLOAD_26.value;
};

object triplex_load {
	name nload_load_2018;
	nominal_voltage 120;
	parent nt_bus2018_l;
	phases BS;
	constant_power_12 TphaseLOAD_27.value;
};

object triplex_load {
	name nload_load_2020;
	nominal_voltage 120;
	parent nt_bus2020_l;
	phases BS;
	constant_power_12 TphaseLOAD_28.value;
};

object triplex_load {
	name nload_load_2022;
	nominal_voltage 120;
	parent nt_bus2022_l;
	phases CS;
	constant_power_12 TphaseLOAD_29.value;
};

object triplex_load {
	name nload_load_2023;
	nominal_voltage 120;
	parent nt_bus2023_l;
	phases CS;
	constant_power_12 TphaseLOAD_30.value;
};

object triplex_load {
	name nload_load_2024;
	nominal_voltage 120;
	parent nt_bus2024_l;
	phases CS;
	constant_power_12 TphaseLOAD_31.value;
};

object triplex_load {
	name nload_load_2025;
	nominal_voltage 120;
	parent nt_bus2025_l;
	phases CS;
	constant_power_12 TphaseLOAD_32.value;
};

object triplex_load {
	name nload_load_2028;
	nominal_voltage 120;
	parent nt_bus2028_l;
	phases AS;
	constant_power_12 TphaseLOAD_33.value;
};

object load {
	name nload_load_2029;
	nominal_voltage 120;
	parent nt_bus2029_l;
	constant_power_A TphaseLOAD_34.value*0.3333333333333333;
	constant_power_B TphaseLOAD_34.value*0.3333333333333333;
	constant_power_C TphaseLOAD_34.value*0.3333333333333333;
};

object load {
	name nload_load_2030;
	nominal_voltage 120;
	parent nt_bus2030_l;
	constant_power_A TphaseLOAD_35.value*0.3333333333333333;
	constant_power_B TphaseLOAD_35.value*0.3333333333333333;
	constant_power_C TphaseLOAD_35.value*0.3333333333333333;
};

object triplex_load {
	name nload_load_2031;
	nominal_voltage 120;
	parent nt_bus2031_l;
	phases AS;
	constant_power_12 TphaseLOAD_36.value;
};

object load {
	name nload_load_2032;
	nominal_voltage 120;
	parent nt_bus2032_l;
	constant_power_A TphaseLOAD_37.value*0.3333333333333333;
	constant_power_B TphaseLOAD_37.value*0.3333333333333333;
	constant_power_C TphaseLOAD_37.value*0.3333333333333333;
};

object load {
	name nload_load_2034;
	nominal_voltage 120;
	parent nt_bus2034_l;
	constant_power_A TphaseLOAD_38.value*0.3333333333333333;
	constant_power_B TphaseLOAD_38.value*0.3333333333333333;
	constant_power_C TphaseLOAD_38.value*0.3333333333333333;
};

object load {
	name nload_load_2035;
	nominal_voltage 120;
	parent nt_bus2035_l;
	constant_power_A TphaseLOAD_39.value*0.3333333333333333;
	constant_power_B TphaseLOAD_39.value*0.3333333333333333;
	constant_power_C TphaseLOAD_39.value*0.3333333333333333;
};

object load {
	name nload_load_2037;
	nominal_voltage 120;
	parent nt_bus2037_l;
	constant_power_A TphaseLOAD_40.value*0.3333333333333333;
	constant_power_B TphaseLOAD_40.value*0.3333333333333333;
	constant_power_C TphaseLOAD_40.value*0.3333333333333333;
};

object load {
	name nload_load_2040;
	nominal_voltage 120.0;
	parent nt_bus2040_l;
	constant_power_A TphaseLOAD_41.value*0.3333333333333333;
	constant_power_B TphaseLOAD_41.value*0.3333333333333333;
	constant_power_C TphaseLOAD_41.value*0.3333333333333333;
};

object load {
	name nload_load_2041;
	nominal_voltage 120;
	parent nt_bus2041_l;
	constant_power_A TphaseLOAD_42.value*0.3333333333333333;
	constant_power_B TphaseLOAD_42.value*0.3333333333333333;
	constant_power_C TphaseLOAD_42.value*0.3333333333333333;
};

object load {
	name nload_load_2042;
	nominal_voltage 120;
	parent nt_bus2042_l;
	constant_power_A TphaseLOAD_43.value*0.3333333333333333;
	constant_power_B TphaseLOAD_43.value*0.3333333333333333;
	constant_power_C TphaseLOAD_43.value*0.3333333333333333;
};

object load {
	name nload_load_2043;
	nominal_voltage 120;
	parent nt_bus2043_l;
	constant_power_A TphaseLOAD_44.value*0.3333333333333333;
	constant_power_B TphaseLOAD_44.value*0.3333333333333333;
	constant_power_C TphaseLOAD_44.value*0.3333333333333333;
};

object triplex_load {
	name nload_load_2045;
	nominal_voltage 120;
	parent nt_bus2045_l;
	phases BS;
	constant_power_12 TphaseLOAD_45.value;
};

object triplex_load {
	name nload_load_2046;
	nominal_voltage 120;
	parent nt_bus2046_l;
	phases BS;
	constant_power_12 TphaseLOAD_46.value;
};

object triplex_load {
	name nload_load_2047;
	nominal_voltage 120;
	parent nt_bus2047_l;
	phases BS;
	constant_power_12 TphaseLOAD_47.value;
};

object triplex_load {
	name nload_load_2048;
	nominal_voltage 120;
	parent nt_bus2048_l;
	phases BS;
	constant_power_12 TphaseLOAD_48.value;
};

object triplex_load {
	name nload_load_2049;
	nominal_voltage 120;
	parent nt_bus2049_l;
	phases CS;
	constant_power_12 TphaseLOAD_49.value;
};

object triplex_load {
	name nload_load_2050;
	nominal_voltage 120;
	parent nt_bus2050_l;
	phases CS;
	constant_power_12 TphaseLOAD_50.value;
};

object triplex_load {
	name nload_load_2051;
	nominal_voltage 120;
	parent nt_bus2051_l;
	phases CS;
	constant_power_12 TphaseLOAD_51.value;
};

object load {
	name nload_load_2052;
	nominal_voltage 120;
	parent nt_bus2052_l;
	constant_power_A TphaseLOAD_52.value*0.3333333333333333;
	constant_power_B TphaseLOAD_52.value*0.3333333333333333;
	constant_power_C TphaseLOAD_52.value*0.3333333333333333;
};

object load {
	name nload_load_2053;
	nominal_voltage 120;
	parent nt_bus2053_l;
	constant_power_A TphaseLOAD_53.value*0.3333333333333333;
	constant_power_B TphaseLOAD_53.value*0.3333333333333333;
	constant_power_C TphaseLOAD_53.value*0.3333333333333333;
};

object triplex_load {
	name nload_load_2054;
	nominal_voltage 120;
	parent nt_bus2054_l;
	phases AS;
	constant_power_12 TphaseLOAD_54.value;
};

object triplex_load {
	name nload_load_2055;
	nominal_voltage 120;
	parent nt_bus2055_l;
	phases AS;
	constant_power_12 TphaseLOAD_55.value;
};

object triplex_load {
	name nload_load_2056;
	nominal_voltage 120;
	parent nt_bus2056_l;
	phases AS;
	constant_power_12 TphaseLOAD_56.value;
};

object load {
	name nload_load_2058;
	nominal_voltage 120;
	parent nt_bus2058_l;
	constant_power_A TphaseLOAD_57.value*0.3333333333333333;
	constant_power_B TphaseLOAD_57.value*0.3333333333333333;
	constant_power_C TphaseLOAD_57.value*0.3333333333333333;
};

object triplex_load {
	name nload_load_2059;
	nominal_voltage 120;
	parent nt_bus2059_l;
	phases BS;
	constant_power_12 TphaseLOAD_58.value;
};

object triplex_load {
	name nload_load_2060;
	nominal_voltage 120;
	parent nt_bus2060_l;
	phases BS;
	constant_power_12 TphaseLOAD_59.value;
};

object load {
	name nload_load_3002;
	nominal_voltage 120;
	parent nt_bus3002_l;
	constant_power_A TphaseLOAD_60.value*0.3333333333333333;
	constant_power_B TphaseLOAD_60.value*0.3333333333333333;
	constant_power_C TphaseLOAD_60.value*0.3333333333333333;
};

object load {
	name nload_load_3004;
	nominal_voltage 120;
	parent nt_bus3004_l;
	constant_power_A TphaseLOAD_61.value*0.3333333333333333;
	constant_power_B TphaseLOAD_61.value*0.3333333333333333;
	constant_power_C TphaseLOAD_61.value*0.3333333333333333;
};

object load {
	name nload_load_3006;
	nominal_voltage 120;
	parent nt_bus3006_l;
	constant_power_A TphaseLOAD_62.value*0.3333333333333333;
	constant_power_B TphaseLOAD_62.value*0.3333333333333333;
	constant_power_C TphaseLOAD_62.value*0.3333333333333333;
};

object load {
	name nload_load_3007;
	nominal_voltage 120;
	parent nt_bus3007_l;
	constant_power_A TphaseLOAD_63.value*0.3333333333333333;
	constant_power_B TphaseLOAD_63.value*0.3333333333333333;
	constant_power_C TphaseLOAD_63.value*0.3333333333333333;
};

object triplex_load {
	name nload_load_3009;
	nominal_voltage 120;
	parent nt_bus3009_l;
	phases AS;
	constant_power_12 TphaseLOAD_64.value;
};

object triplex_load {
	name nload_load_3010;
	nominal_voltage 120;
	parent nt_bus3010_l;
	phases AS;
	constant_power_12 TphaseLOAD_65.value;
};

object triplex_load {
	name nload_load_3011;
	nominal_voltage 120;
	parent nt_bus3011_l;
	phases AS;
	constant_power_12 TphaseLOAD_66.value;
};

object triplex_load {
	name nload_load_3012;
	nominal_voltage 120;
	parent nt_bus3012_l;
	phases AS;
	constant_power_12 TphaseLOAD_67.value;
};

object triplex_load {
	name nload_load_3013;
	nominal_voltage 120;
	parent nt_bus3013_l;
	phases BS;
	constant_power_12 TphaseLOAD_68.value;
};

object triplex_load {
	name nload_load_3014;
	nominal_voltage 120;
	parent nt_bus3014_l;
	phases BS;
	constant_power_12 TphaseLOAD_69.value;
};

object triplex_load {
	name nload_load_3016;
	nominal_voltage 120;
	parent nt_bus3016_l;
	phases BS;
	constant_power_12 TphaseLOAD_70.value;
};

object triplex_load {
	name nload_load_3017;
	nominal_voltage 120;
	parent nt_bus3017_l;
	phases BS;
	constant_power_12 TphaseLOAD_71.value;
};

object triplex_load {
	name nload_load_3018;
	nominal_voltage 120;
	parent nt_bus3018_l;
	phases CS;
	constant_power_12 TphaseLOAD_72.value;
};

object triplex_load {
	name nload_load_3019;
	nominal_voltage 120;
	parent nt_bus3019_l;
	phases CS;
	constant_power_12 TphaseLOAD_73.value;
};

object triplex_load {
	name nload_load_3020;
	nominal_voltage 120;
	parent nt_bus3020_l;
	phases CS;
	constant_power_12 TphaseLOAD_74.value;
};

object triplex_load {
	name nload_load_3021;
	nominal_voltage 120;
	parent nt_bus3021_l;
	phases CS;
	constant_power_12 TphaseLOAD_75.value;
};

object triplex_load {
	name nload_load_3023;
	nominal_voltage 120;
	parent nt_bus3023_l;
	phases AS;
	constant_power_12 TphaseLOAD_76.value;
};

object triplex_load {
	name nload_load_3024;
	nominal_voltage 120;
	parent nt_bus3024_l;
	phases AS;
	constant_power_12 TphaseLOAD_77.value;
};

object triplex_load {
	name nload_load_3025;
	nominal_voltage 120;
	parent nt_bus3025_l;
	phases AS;
	constant_power_12 TphaseLOAD_78.value;
};

object triplex_load {
	name nload_load_3026;
	nominal_voltage 120;
	parent nt_bus3026_l;
	phases AS;
	constant_power_12 TphaseLOAD_79.value;
};

object triplex_load {
	name nload_load_3027;
	nominal_voltage 120;
	parent nt_bus3027_l;
	phases AS;
	constant_power_12 TphaseLOAD_80.value;
};

object triplex_load {
	name nload_load_3028;
	nominal_voltage 120;
	parent nt_bus3028_l;
	phases AS;
	constant_power_12 TphaseLOAD_81.value;
};

object triplex_load {
	name nload_load_3029;
	nominal_voltage 120;
	parent nt_bus3029_l;
	phases AS;
	constant_power_12 TphaseLOAD_82.value;
};

object load {
	name nload_load_3031;
	nominal_voltage 120;
	parent nt_bus3031_l;
	constant_power_A TphaseLOAD_83.value*0.3333333333333333;
	constant_power_B TphaseLOAD_83.value*0.3333333333333333;
	constant_power_C TphaseLOAD_83.value*0.3333333333333333;
};

object load {
	name nload_load_3032;
	nominal_voltage 120;
	parent nt_bus3032_l;
	constant_power_A TphaseLOAD_84.value*0.3333333333333333;
	constant_power_B TphaseLOAD_84.value*0.3333333333333333;
	constant_power_C TphaseLOAD_84.value*0.3333333333333333;
};

object load {
	name nload_load_3033;
	nominal_voltage 120;
	parent nt_bus3033_l;
	constant_power_A TphaseLOAD_85.value*0.3333333333333333;
	constant_power_B TphaseLOAD_85.value*0.3333333333333333;
	constant_power_C TphaseLOAD_85.value*0.3333333333333333;
};

object load {
	name nload_load_3034;
	nominal_voltage 120;
	parent nt_bus3034_l;
	constant_power_A TphaseLOAD_86.value*0.3333333333333333;
	constant_power_B TphaseLOAD_86.value*0.3333333333333333;
	constant_power_C TphaseLOAD_86.value*0.3333333333333333;
};

object load {
	name nload_load_3035;
	nominal_voltage 120;
	parent nt_bus3035_l;
	constant_power_A TphaseLOAD_87.value*0.3333333333333333;
	constant_power_B TphaseLOAD_87.value*0.3333333333333333;
	constant_power_C TphaseLOAD_87.value*0.3333333333333333;
};

object load {
	name nload_load_3036;
	nominal_voltage 120;
	parent nt_bus3036_l;
	constant_power_A TphaseLOAD_88.value*0.3333333333333333;
	constant_power_B TphaseLOAD_88.value*0.3333333333333333;
	constant_power_C TphaseLOAD_88.value*0.3333333333333333;
};

object load {
	name nload_load_3037;
	nominal_voltage 120;
	parent nt_bus3037_l;
	constant_power_A TphaseLOAD_89.value*0.3333333333333333;
	constant_power_B TphaseLOAD_89.value*0.3333333333333333;
	constant_power_C TphaseLOAD_89.value*0.3333333333333333;
};

object load {
	name nload_load_3038;
	nominal_voltage 120;
	parent nt_bus3038_l;
	constant_power_A TphaseLOAD_90.value*0.3333333333333333;
	constant_power_B TphaseLOAD_90.value*0.3333333333333333;
	constant_power_C TphaseLOAD_90.value*0.3333333333333333;
};

object load {
	name nload_load_3039;
	nominal_voltage 120;
	parent nt_bus3039_l;
	constant_power_A TphaseLOAD_91.value*0.3333333333333333;
	constant_power_B TphaseLOAD_91.value*0.3333333333333333;
	constant_power_C TphaseLOAD_91.value*0.3333333333333333;
};

object triplex_load {
	name nload_load_3041;
	nominal_voltage 120;
	parent nt_bus3041_l;
	phases CS;
	constant_power_12 TphaseLOAD_92.value;
};

object triplex_load {
	name nload_load_3042;
	nominal_voltage 120;
	parent nt_bus3042_l;
	phases CS;
	constant_power_12 TphaseLOAD_93.value;
};

object triplex_load {
	name nload_load_3043;
	nominal_voltage 120;
	parent nt_bus3043_l;
	phases CS;
	constant_power_12 TphaseLOAD_94.value;
};

object triplex_load {
	name nload_load_3044;
	nominal_voltage 120;
	parent nt_bus3044_l;
	phases CS;
	constant_power_12 TphaseLOAD_95.value;
};

object triplex_load {
	name nload_load_3045;
	nominal_voltage 120;
	parent nt_bus3045_l;
	phases CS;
	constant_power_12 TphaseLOAD_96.value;
};

object load {
	name nload_load_3047;
	nominal_voltage 120;
	parent nt_bus3047_l;
	constant_power_A TphaseLOAD_97.value*0.3333333333333333;
	constant_power_B TphaseLOAD_97.value*0.3333333333333333;
	constant_power_C TphaseLOAD_97.value*0.3333333333333333;
};

object load {
	name nload_load_3048;
	nominal_voltage 120;
	parent nt_bus3048_l;
	constant_power_A TphaseLOAD_98.value*0.3333333333333333;
	constant_power_B TphaseLOAD_98.value*0.3333333333333333;
	constant_power_C TphaseLOAD_98.value*0.3333333333333333;
};

object load {
	name nload_load_3049;
	nominal_voltage 120;
	parent nt_bus3049_l;
	constant_power_A TphaseLOAD_99.value*0.3333333333333333;
	constant_power_B TphaseLOAD_99.value*0.3333333333333333;
	constant_power_C TphaseLOAD_99.value*0.3333333333333333;
};

object load {
	name nload_load_3050;
	nominal_voltage 120;
	parent nt_bus3050_l;
	constant_power_A TphaseLOAD_100.value*0.3333333333333333;
	constant_power_B TphaseLOAD_100.value*0.3333333333333333;
	constant_power_C TphaseLOAD_100.value*0.3333333333333333;
};

object load {
	name nload_load_3051;
	nominal_voltage 120;
	parent nt_bus3051_l;
	constant_power_A TphaseLOAD_101.value*0.3333333333333333;
	constant_power_B TphaseLOAD_101.value*0.3333333333333333;
	constant_power_C TphaseLOAD_101.value*0.3333333333333333;
};

object load {
	name nload_load_3052;
	nominal_voltage 120;
	parent nt_bus3052_l;
	constant_power_A TphaseLOAD_102.value*0.3333333333333333;
	constant_power_B TphaseLOAD_102.value*0.3333333333333333;
	constant_power_C TphaseLOAD_102.value*0.3333333333333333;
};

object load {
	name nload_load_3054;
	nominal_voltage 120;
	parent nt_bus3054_l;
	constant_power_A TphaseLOAD_103.value*0.3333333333333333;
	constant_power_B TphaseLOAD_103.value*0.3333333333333333;
	constant_power_C TphaseLOAD_103.value*0.3333333333333333;
};

object triplex_load {
	name nload_load_3056;
	nominal_voltage 120;
	parent nt_bus3056_l;
	phases BS;
	constant_power_12 TphaseLOAD_104.value;
};

object triplex_load {
	name nload_load_3057;
	nominal_voltage 120;
	parent nt_bus3057_l;
	phases BS;
	constant_power_12 TphaseLOAD_105.value;
};

object triplex_load {
	name nload_load_3058;
	nominal_voltage 120;
	parent nt_bus3058_l;
	phases BS;
	constant_power_12 TphaseLOAD_106.value;
};

object triplex_load {
	name nload_load_3059;
	nominal_voltage 120;
	parent nt_bus3059_l;
	phases BS;
	constant_power_12 TphaseLOAD_107.value;
};

object triplex_load {
	name nload_load_3060;
	nominal_voltage 120;
	parent nt_bus3060_l;
	phases BS;
	constant_power_12 TphaseLOAD_108.value;
};

object triplex_load {
	name nload_load_3061;
	nominal_voltage 120;
	parent nt_bus3061_l;
	phases BS;
	constant_power_12 TphaseLOAD_109.value;
};

object triplex_load {
	name nload_load_3062;
	nominal_voltage 120;
	parent nt_bus3062_l;
	phases BS;
	constant_power_12 TphaseLOAD_110.value;
};

object triplex_load {
	name nload_load_3063;
	nominal_voltage 120;
	parent nt_bus3063_l;
	phases BS;
	constant_power_12 TphaseLOAD_111.value;
};

object triplex_load {
	name nload_load_3064;
	nominal_voltage 120;
	parent nt_bus3064_l;
	phases BS;
	constant_power_12 TphaseLOAD_112.value;
};

object triplex_load {
	name nload_load_3065;
	nominal_voltage 120;
	parent nt_bus3065_l;
	phases BS;
	constant_power_12 TphaseLOAD_113.value;
};

object triplex_load {
	name nload_load_3066;
	nominal_voltage 120;
	parent nt_bus3066_l;
	phases BS;
	constant_power_12 TphaseLOAD_114.value;
};

object triplex_load {
	name nload_load_3067;
	nominal_voltage 120;
	parent nt_bus3067_l;
	phases BS;
	constant_power_12 TphaseLOAD_115.value;
};

object load {
	name nload_load_3070;
	nominal_voltage 120;
	parent nt_bus3070_l;
	constant_power_A TphaseLOAD_116.value*0.3333333333333333;
	constant_power_B TphaseLOAD_116.value*0.3333333333333333;
	constant_power_C TphaseLOAD_116.value*0.3333333333333333;
};

object load {
	name nload_load_3071;
	nominal_voltage 120;
	parent nt_bus3071_l;
	constant_power_A TphaseLOAD_117.value*0.3333333333333333;
	constant_power_B TphaseLOAD_117.value*0.3333333333333333;
	constant_power_C TphaseLOAD_117.value*0.3333333333333333;
};

object load {
	name nload_load_3072;
	nominal_voltage 120;
	parent nt_bus3072_l;
	constant_power_A TphaseLOAD_118.value*0.3333333333333333;
	constant_power_B TphaseLOAD_118.value*0.3333333333333333;
	constant_power_C TphaseLOAD_118.value*0.3333333333333333;
};

object load {
	name nload_load_3073;
	nominal_voltage 120;
	parent nt_bus3073_l;
	constant_power_A TphaseLOAD_119.value*0.3333333333333333;
	constant_power_B TphaseLOAD_119.value*0.3333333333333333;
	constant_power_C TphaseLOAD_119.value*0.3333333333333333;
};

object load {
	name nload_load_3074;
	nominal_voltage 120;
	parent nt_bus3074_l;
	constant_power_A TphaseLOAD_120.value*0.3333333333333333;
	constant_power_B TphaseLOAD_120.value*0.3333333333333333;
	constant_power_C TphaseLOAD_120.value*0.3333333333333333;
};

object load {
	name nload_load_3077;
	nominal_voltage 120;
	parent nt_bus3077_l;
	constant_power_A TphaseLOAD_121.value*0.3333333333333333;
	constant_power_B TphaseLOAD_121.value*0.3333333333333333;
	constant_power_C TphaseLOAD_121.value*0.3333333333333333;
};
...